[Format]      =  4.0
[Frequency]   =  0
[Precision]   =  1e-008
[MinAngle]    =  30
[DoSmartMesh] =  1
[Depth]       =  20
[LengthUnits] =  millimeters
[ProblemType] =  planar
[Coordinates] =  cartesian
[ACSolver]    =  0
[PrevType]    =  0
[PrevSoln]    =  ""
[Comment]     =  "Add comments here."
[PointProps]   = 0
[BdryProps]   = 1
  <BeginBdry>
    <BdryName> = "BoundaryCondition"
    <BdryType> = 0
    <A_0> = 0
    <A_1> = 0
    <A_2> = 0
    <Phi> = 0
    <c0> = 0
    <c0i> = 0
    <c1> = 0
    <c1i> = 0
    <Mu_ssd> = 0
    <Sigma_ssd> = 0
    <innerangle> = 0
    <outerangle> = 0
  <EndBdry>
[BlockProps]  = 13
  <BeginBlock>
    <BlockName> = "Air"
    <Mu_x> = 1
    <Mu_y> = 1
    <H_c> = 0
    <H_cAngle> = 0
    <J_re> = 0
    <J_im> = 0
    <Sigma> = 0
    <d_lam> = 0
    <Phi_h> = 0
    <Phi_hx> = 0
    <Phi_hy> = 0
    <LamType> = 0
    <LamFill> = 1
    <NStrands> = 0
    <WireD> = 0
    <BHPoints> = 0
  <EndBlock>
  <BeginBlock>
    <BlockName> = "10 AWG"
    <Mu_x> = 1
    <Mu_y> = 1
    <H_c> = 0
    <H_cAngle> = 0
    <J_re> = 0
    <J_im> = 0
    <Sigma> = 58
    <d_lam> = 0
    <Phi_h> = 0
    <Phi_hx> = 0
    <Phi_hy> = 0
    <LamType> = 3
    <LamFill> = 1
    <NStrands> = 1
    <WireD> = 2.5887801724742099
    <BHPoints> = 0
  <EndBlock>
  <BeginBlock>
    <BlockName> = "Mu Metal"
    <Mu_x> = 82910
    <Mu_y> = 82910
    <H_c> = 0
    <H_cAngle> = 0
    <J_re> = 0
    <J_im> = 0
    <Sigma> = 1.8
    <d_lam> = 0
    <Phi_h> = 0
    <Phi_hx> = 0
    <Phi_hy> = 0
    <LamType> = 0
    <LamFill> = 1
    <NStrands> = 0
    <WireD> = 0
    <BHPoints> = 31
      0	0
      0.080001000000000003	0.79577500000000001
      0.099140000000000006	1.0342340000000001
      0.12679699999999999	1.344149
      0.16478400000000001	1.7469330000000001
      0.21423800000000001	2.270413
      0.27441399999999999	2.9507569999999999
      0.34069300000000002	3.8349700000000002
      0.39480599999999999	4.9841449999999998
      0.43570300000000001	6.4776769999999999
      0.46653800000000001	8.4187550000000009
      0.49254100000000001	10.941490999999999
      0.51263599999999998	14.220181
      0.53089299999999995	18.481352000000001
      0.54834099999999997	24.019411000000002
      0.56394500000000003	31.216987
      0.57866499999999998	40.571362999999998
      0.59203600000000001	52.728839999999998
      0.60396099999999997	68.529386000000002
      0.61424699999999999	89.064670000000007
      0.62285900000000005	115.75348700000001
      0.63014599999999998	150.439784
      0.63628200000000001	195.52006
      0.64158999999999999	254.10893899999999
      0.64653300000000002	330.25436300000001
      0.65073700000000001	429.217266
      0.65423600000000004	557.835058
      0.65707000000000004	724.99402199999997
      0.65927800000000003	942.24327400000004
      0.66090599999999999	1224.592701
      0.66200000000000003	1591.55
  <EndBlock>
  <BeginBlock>
    <BlockName> = "M-14"
    <Mu_x> = 1
    <Mu_y> = 1
    <H_c> = 0
    <H_cAngle> = 0
    <J_re> = 0
    <J_im> = 0
    <Sigma> = 1.74
    <d_lam> = 0
    <Phi_h> = 0
    <Phi_hx> = 0
    <Phi_hy> = 0
    <LamType> = 0
    <LamFill> = 1
    <NStrands> = 0
    <WireD> = 0
    <BHPoints> = 34
      0	0
      0.068203780765395211	14.68
      0.075018096370031567	15.461666666666666
      0.091366778358032724	17.330666666666662
      0.094997568269498373	17.693999999999999
      0.11314440933716036	19.42433333333333
      0.1389767940154239	21.321999999999999
      0.40116353032668717	34.640333333333331
      0.53244906843212858	41.699999999999996
      0.85211868548509462	70.573666666666668
      1.0166007917290236	106.73333333333335
      1.027005026595921	110.10333333333332
      1.0764632916085533	129.9433333333333
      1.1823010818623396	239.59333333333336
      1.2023148179645375	277.05000000000001
      1.3383811509208308	1046.0333333333333
      1.3688427556013982	1413.3666666666668
      1.4271095672819165	2527.5666666666666
      1.4454166392095997	2984.1333333333332
      1.4835332597467681	4031.8666666666659
      1.5204669339556516	5225.7999999999993
      1.551748178088983	6298.4333333333325
      1.6016510722943771	8077.9666666666653
      1.6590536390010702	10467.333333333332
      1.7791582753310031	18322.666666666664
      1.7906360805152517	19498.666666666664
      1.8514598080908595	29226
      1.8557505336223326	30465.333333333332
      1.8632005510398157	33104.666666666664
      1.9469769814722375	90700
      1.98399278954702	120076.66666666666
      2.0742554367752168	191666.66666666666
      2.1765362540658613	272900
      2.2428861599447636	325620
  <EndBlock>
  <BeginBlock>
    <BlockName> = "4750 alloy"
    <Mu_x> = 1
    <Mu_y> = 1
    <H_c> = 0
    <H_cAngle> = 0
    <J_re> = 0
    <J_im> = 0
    <Sigma> = 2.0880000000000001
    <d_lam> = 0
    <Phi_h> = 0
    <Phi_hx> = 0
    <Phi_hy> = 0
    <LamType> = 0
    <LamFill> = 1
    <NStrands> = 0
    <WireD> = 0
    <BHPoints> = 33
      0	0
      0.062267620425941785	2.6157851851851843
      0.069980092994661514	2.7265851851851846
      0.078144904714478769	2.8420148148148141
      0.10877931438286799	3.2859111111111106
      0.14025235738210864	3.644333333333333
      0.58980515977882919	7.3480666666666652
      0.77701571002182934	10.438518518518515
      0.79608626377989444	10.879185185185182
      0.89548789324334965	13.944259259259258
      1.0156410564218947	20.882407407407406
      1.113061235894111	33.993407407407403
      1.1559892735560493	44.51581481481481
      1.1926058372891561	57.6968148148148
      1.2782142659115054	135.13962962962958
      1.3714289091077587	406.15592592592594
      1.4733389312506926	1702.1074074074072
      1.5009561826635593	2744.4481481481475
      1.5130476727071458	3595.344444444444
      1.5374771630921702	6775.3851851851841
      1.539637301213713	7362.5999999999985
      1.5616654662184086	20173.407407407405
      1.5754169603223946	30889.555555555551
      1.5792231278130302	33918.407407407401
      1.6028430733907113	52478.777777777766
      1.6132108575023323	60696.777777777766
      1.6270751198508848	71676.555555555533
      1.701965485861944	130959.99999999997
      1.7379936506252971	159547.77777777775
      1.8143586195726003	220187.40740740736
      1.9118105614895025	297628.14814814809
      1.9277013566015917	310261.8518518518
      1.9442838592977614	323390
  <EndBlock>
  <BeginBlock>
    <BlockName> = "Soft magnetic ferrite (Fe-Ni-Zn-V)"
    <Mu_x> = 1
    <Mu_y> = 1
    <H_c> = 0
    <H_cAngle> = 0
    <J_re> = 0
    <J_im> = 0
    <Sigma> = 0
    <d_lam> = 0
    <Phi_h> = 0
    <Phi_hx> = 0
    <Phi_hy> = 0
    <LamType> = 0
    <LamFill> = 1
    <NStrands> = 0
    <WireD> = 0
    <BHPoints> = 27
      0	0
      0.068850756910128444	44.63519753086419
      0.079231351768504585	47.996938271604932
      0.096629805222867599	54.360481481481472
      0.10428518223687107	57.254135802469136
      0.11791981395323581	63.513925925925903
      0.12337443073651684	66.205407407407364
      0.15091206297703	83.18401234567898
      0.19174942986281673	128.63864197530862
      0.20263507284968685	150.32185185185182
      0.2390242052470492	280.2956790123456
      0.24393625127711305	307.76197530864192
      0.24555614462251754	317.50148148148139
      0.26724361274612662	486.03790123456781
      0.29056515192641547	775.60827160493818
      0.29618977849347761	869.47777777777765
      0.31289613290425267	1359.0728395061724
      0.31335557743458525	1373.2691358024688
      0.33594174880643024	2431.4518518518512
      0.36483908041448099	5699.1765432098764
      0.36848205798752964	6389.1543209876527
      0.37676605298145499	8458.0074074074037
      0.47711675995875713	61532.617283950603
      0.49488110240278821	73419.641975308608
      0.6669901800055722	197003.70370370365
      0.82853938560684104	321027.90123456786
      0.83272023087673985	324350
  <EndBlock>
  <BeginBlock>
    <BlockName> = "416 Stainless Steel"
    <Mu_x> = 440
    <Mu_y> = 440
    <H_c> = 0
    <H_cAngle> = 0
    <J_re> = 0
    <J_im> = 0
    <Sigma> = 0
    <d_lam> = 0
    <Phi_h> = 0
    <Phi_hx> = 0
    <Phi_hy> = 0
    <LamType> = 0
    <LamFill> = 1
    <NStrands> = 0
    <WireD> = 0
    <BHPoints> = 12
      0	0
      0.20039999999999999	318.31
      0.42559999999999998	477.46499999999997
      0.76100000000000001	795.77499999999998
      1.097	1591.55
      1.2330000000000001	2387.3249999999998
      1.335	3978.875
      1.46	7957.75
      1.5900000000000001	15915.5
      1.6899999999999999	31831
      1.724232	44456.279999999999
      1.74	55704.25
  <EndBlock>
  <BeginBlock>
    <BlockName> = "455 Stainless Steel"
    <Mu_x> = 470
    <Mu_y> = 470
    <H_c> = 0
    <H_cAngle> = 0
    <J_re> = 0
    <J_im> = 0
    <Sigma> = 1.6699999999999999
    <d_lam> = 0
    <Phi_h> = 20
    <Phi_hx> = 0
    <Phi_hy> = 0
    <LamType> = 0
    <LamFill> = 1
    <NStrands> = 0
    <WireD> = 0
    <BHPoints> = 26
      0	0
      0.067337999999999995	342.70800000000003
      0.10261000000000001	514.03099999999995
      0.18909000000000001	713.09400000000005
      0.29154000000000002	854.58199999999999
      0.40999999999999998	995.75300000000004
      0.55725000000000002	1107.72
      0.73009999999999997	1247.9300000000001
      0.86777000000000004	1417.4300000000001
      0.97345000000000004	1616.1400000000001
      1.0632999999999999	2273.6900000000001
      1.1339999999999999	2931.6300000000001
      1.224	4076.3600000000001
      1.2724	4906.5900000000001
      1.3500000000000001	6968.6800000000003
      1.3761000000000001	8085.8699999999999
      1.3991	9661.5
      1.419	11438.5
      1.4359999999999999	13874.299999999999
      1.4462999999999999	15736.4
      1.4533	17169.599999999999
      1.464	19777.400000000001
      1.478	22986.700000000001
      1.4887999999999999	25795
      1.4959	27715.200000000001
      1.4995000000000001	28604.099999999999
  <EndBlock>
  <BeginBlock>
    <BlockName> = "1006 Steel"
    <Mu_x> = 1404
    <Mu_y> = 1404
    <H_c> = 0
    <H_cAngle> = 0
    <J_re> = 0
    <J_im> = 0
    <Sigma> = 5.7999999999999998
    <d_lam> = 0
    <Phi_h> = 20
    <Phi_hx> = 0
    <Phi_hy> = 0
    <LamType> = 0
    <LamFill> = 1
    <NStrands> = 0
    <WireD> = 0
    <BHPoints> = 38
      0	0
      0.38833000000000001	79.577472
      0.48252400000000001	100.182101
      0.59529299999999996	126.121793
      0.726634	158.77793
      0.87345300000000003	199.88957099999999
      1.0281009999999999	251.646061
      1.178099	316.80362000000002
      1.308718	398.83212800000001
      1.408663	502.09990099999999
      1.4756450000000001	632.10632499999997
      1.5169570000000001	795.77471500000001
      1.544297	1001.821011
      1.567545	1261.2179289999999
      1.592042	1587.779301
      1.619381	1998.89571
      1.649135	2516.4606050000002
      1.6799839999999999	3168.036204
      1.7105109999999999	3988.3212819999999
      1.7400770000000001	5020.9990129999996
      1.769441	6321.0632500000002
      1.8005549999999999	7957.747155
      1.8356250000000001	10018.210114
      1.8761209999999999	12612.179292999999
      1.9221870000000001	15877.793009999999
      1.972386	19988.957103000001
      2.0236740000000002	25164.606051999999
      2.0719500000000002	31680.362036999999
      2.1135380000000001	39883.212823000002
      2.1470829999999999	50209.990126999997
      2.1744270000000001	63210.632496999999
      2.1996039999999999	79577.471546000001
      2.2269369999999999	100182.101136
      2.2598500000000001	126121.79292599999
      2.3009309999999998	158777.930096
      2.3525969999999998	199889.57102999999
      2.4176359999999999	251646.06052200001
      2.4995159999999998	316803.62037000002
  <EndBlock>
  <BeginBlock>
    <BlockName> = "1117 Steel"
    <Mu_x> = 1777
    <Mu_y> = 1777
    <H_c> = 0
    <H_cAngle> = 0
    <J_re> = 0
    <J_im> = 0
    <Sigma> = 5.7999999999999998
    <d_lam> = 0
    <Phi_h> = 20
    <Phi_hx> = 0
    <Phi_hy> = 0
    <LamType> = 0
    <LamFill> = 1
    <NStrands> = 0
    <WireD> = 0
    <BHPoints> = 9
      0	0
      0.70040000000000002	238.73249999999999
      1.351	795.77499999999998
      1.6240000000000001	3183.0999999999999
      1.77	7957.75
      2	31831
      2.1299999999999999	79577.5
      2.25	159155
      2.46	318310
  <EndBlock>
  <BeginBlock>
    <BlockName> = "430 Stainless Steel"
    <Mu_x> = 409
    <Mu_y> = 409
    <H_c> = 0
    <H_cAngle> = 0
    <J_re> = 0
    <J_im> = 0
    <Sigma> = 0
    <d_lam> = 0
    <Phi_h> = 0
    <Phi_hx> = 0
    <Phi_hy> = 0
    <LamType> = 0
    <LamFill> = 1
    <NStrands> = 0
    <WireD> = 0
    <BHPoints> = 10
      0	0
      0.20039999999999999	318.31
      0.6008	636.62
      1.1020000000000001	1591.55
      1.3859999999999999	4774.6499999999996
      1.4650000000000001	7957.75
      1.667548	32902.232515999996
      1.789509	92585.397305000006
      1.878209	160685.354903
      2.0800000000000001	318310
  <EndBlock>
  <BeginBlock>
    <BlockName> = "M-47 Steel"
    <Mu_x> = 1
    <Mu_y> = 1
    <H_c> = 0
    <H_cAngle> = 0
    <J_re> = 0
    <J_im> = 0
    <Sigma> = 4.2999999999999998
    <d_lam> = 0.63500000000000001
    <Phi_h> = 0
    <Phi_hx> = 0
    <Phi_hy> = 0
    <LamType> = 0
    <LamFill> = 0.97999999999999998
    <NStrands> = 0
    <WireD> = 0
    <BHPoints> = 0
  <EndBlock>
  <BeginBlock>
    <BlockName> = "SmCo26"
    <Mu_x> = 1.1000000000000001
    <Mu_y> = 1.1000000000000001
    <H_c> = 758741
    <H_cAngle> = 0
    <J_re> = 0
    <J_im> = 0
    <Sigma> = 1.1599999999999999
    <d_lam> = 0
    <Phi_h> = 0
    <Phi_hx> = 0
    <Phi_hy> = 0
    <LamType> = 0
    <LamFill> = 1
    <NStrands> = 0
    <WireD> = 0
    <BHPoints> = 0
  <EndBlock>
[CircuitProps]  = 1
  <BeginCircuit>
    <CircuitName> = "Coil Circuit"
    <TotalAmps_re> = 3
    <TotalAmps_im> = 0
    <CircuitType> = 1
  <EndCircuit>
[NumPoints] = 30
-30	-35	0	0
-30	35	0	0
30	-35	0	0
30	-10	0	0
15	-10	0	0
-15	-20	0	0
-15	20	0	0
15	20	0	0
15	10	0	0
15	-20	0	0
30	35	0	0
30	10	0	0
11.25480947161671	4.4772413359521614	0	0
12.25480947161671	2.7451905283832896	0	0
20.754809471616714	-11.977241335952165	0	0
19.754809471616714	-10.245190528383288	0	0
24.245190528383286	11.977241335952165	0	0
25.245190528383286	10.245190528383288	0	0
33.74519052838329	-4.4772413359521632	0	0
32.74519052838329	-2.7451905283832896	0	0
-30	-15	0	0
-30	15	0	0
-40	15	0	0
-40	-15	0	0
-5	-15	0	0
-15	-15	0	0
-15	15	0	0
-5	15	0	0
-300	0	0	0
300	0	0	0
[NumSegments] = 24
0	2	-1	0	0	0
1	21	-1	0	0	0
1	10	-1	0	0	0
7	6	-1	0	0	0
7	8	-1	0	0	0
10	11	-1	0	0	0
9	4	-1	0	0	0
3	2	-1	0	0	0
5	9	-1	0	0	0
12	13	-1	0	0	0
16	17	-1	0	0	0
15	14	-1	0	0	0
19	18	-1	0	0	0
20	0	-1	0	0	0
21	20	-1	0	0	0
6	26	-1	0	0	0
22	21	-1	0	0	0
22	23	-1	0	0	0
23	20	-1	0	0	0
25	5	-1	0	0	0
26	25	-1	0	0	0
26	27	-1	0	0	0
24	27	-1	0	0	0
24	25	-1	0	0	0
[NumArcSegments] = 8
13	15	83	1	0	0	0	1
19	17	83	1	0	0	0	1
28	29	180	1	1	0	0	1
29	28	180	1	1	0	0	1
16	12	74	1	0	0	0	1
11	8	74	1	0	0	0	1
4	3	74	1	0	0	0	1
14	18	74	1	0	0	0	1
[NumHoles] = 0
[NumBlockLabels] = 5
-0.89999999999999858	27.299999999999997	6	-1	0	0	0	1	0
-35.899999999999999	0	2	-1	1	0	0	250	0
-152	147	1	-1	0	0	0	1	0
24.300000000000001	0.40000000000000002	6	-1	0	0	0	1	0
-8.6999999999999993	1.3999999999999999	2	-1	1	0	0	-250	0
