[Format]      =  4.0
[Frequency]   =  0
[Precision]   =  1e-008
[MinAngle]    =  30
[DoSmartMesh] =  1
[Depth]       =  20
[LengthUnits] =  millimeters
[ProblemType] =  planar
[Coordinates] =  cartesian
[ACSolver]    =  0
[PrevType]    =  0
[PrevSoln]    =  ""
[Comment]     =  "Add comments here."
[PointProps]   = 0
[BdryProps]   = 1
  <BeginBdry>
    <BdryName> = "BoundaryCondition"
    <BdryType> = 0
    <A_0> = 0
    <A_1> = 0
    <A_2> = 0
    <Phi> = 0
    <c0> = 0
    <c0i> = 0
    <c1> = 0
    <c1i> = 0
    <Mu_ssd> = 0
    <Sigma_ssd> = 0
    <innerangle> = 0
    <outerangle> = 0
  <EndBdry>
[BlockProps]  = 11
  <BeginBlock>
    <BlockName> = "Air"
    <Mu_x> = 1
    <Mu_y> = 1
    <H_c> = 0
    <H_cAngle> = 0
    <J_re> = 0
    <J_im> = 0
    <Sigma> = 0
    <d_lam> = 0
    <Phi_h> = 0
    <Phi_hx> = 0
    <Phi_hy> = 0
    <LamType> = 0
    <LamFill> = 1
    <NStrands> = 0
    <WireD> = 0
    <BHPoints> = 0
  <EndBlock>
  <BeginBlock>
    <BlockName> = "10 AWG"
    <Mu_x> = 1
    <Mu_y> = 1
    <H_c> = 0
    <H_cAngle> = 0
    <J_re> = 0
    <J_im> = 0
    <Sigma> = 58
    <d_lam> = 0
    <Phi_h> = 0
    <Phi_hx> = 0
    <Phi_hy> = 0
    <LamType> = 3
    <LamFill> = 1
    <NStrands> = 1
    <WireD> = 2.5887801724742099
    <BHPoints> = 0
  <EndBlock>
  <BeginBlock>
    <BlockName> = "M-14"
    <Mu_x> = 1
    <Mu_y> = 1
    <H_c> = 0
    <H_cAngle> = 0
    <J_re> = 0
    <J_im> = 0
    <Sigma> = 1.74
    <d_lam> = 0
    <Phi_h> = 0
    <Phi_hx> = 0
    <Phi_hy> = 0
    <LamType> = 0
    <LamFill> = 1
    <NStrands> = 0
    <WireD> = 0
    <BHPoints> = 34
      0	0
      0.068203780765395211	14.68
      0.075018096370031567	15.461666666666666
      0.091366778358032724	17.330666666666662
      0.094997568269498373	17.693999999999999
      0.11314440933716036	19.42433333333333
      0.1389767940154239	21.321999999999999
      0.40116353032668717	34.640333333333331
      0.53244906843212858	41.699999999999996
      0.85211868548509462	70.573666666666668
      1.0166007917290236	106.73333333333335
      1.027005026595921	110.10333333333332
      1.0764632916085533	129.9433333333333
      1.1823010818623396	239.59333333333336
      1.2023148179645375	277.05000000000001
      1.3383811509208308	1046.0333333333333
      1.3688427556013982	1413.3666666666668
      1.4271095672819165	2527.5666666666666
      1.4454166392095997	2984.1333333333332
      1.4835332597467681	4031.8666666666659
      1.5204669339556516	5225.7999999999993
      1.551748178088983	6298.4333333333325
      1.6016510722943771	8077.9666666666653
      1.6590536390010702	10467.333333333332
      1.7791582753310031	18322.666666666664
      1.7906360805152517	19498.666666666664
      1.8514598080908595	29226
      1.8557505336223326	30465.333333333332
      1.8632005510398157	33104.666666666664
      1.9469769814722375	90700
      1.98399278954702	120076.66666666666
      2.0742554367752168	191666.66666666666
      2.1765362540658613	272900
      2.2428861599447636	325620
  <EndBlock>
  <BeginBlock>
    <BlockName> = "4750 alloy"
    <Mu_x> = 1
    <Mu_y> = 1
    <H_c> = 0
    <H_cAngle> = 0
    <J_re> = 0
    <J_im> = 0
    <Sigma> = 2.0880000000000001
    <d_lam> = 0
    <Phi_h> = 0
    <Phi_hx> = 0
    <Phi_hy> = 0
    <LamType> = 0
    <LamFill> = 1
    <NStrands> = 0
    <WireD> = 0
    <BHPoints> = 33
      0	0
      0.062267620425941785	2.6157851851851843
      0.069980092994661514	2.7265851851851846
      0.078144904714478769	2.8420148148148141
      0.10877931438286799	3.2859111111111106
      0.14025235738210864	3.644333333333333
      0.58980515977882919	7.3480666666666652
      0.77701571002182934	10.438518518518515
      0.79608626377989444	10.879185185185182
      0.89548789324334965	13.944259259259258
      1.0156410564218947	20.882407407407406
      1.113061235894111	33.993407407407403
      1.1559892735560493	44.51581481481481
      1.1926058372891561	57.6968148148148
      1.2782142659115054	135.13962962962958
      1.3714289091077587	406.15592592592594
      1.4733389312506926	1702.1074074074072
      1.5009561826635593	2744.4481481481475
      1.5130476727071458	3595.344444444444
      1.5374771630921702	6775.3851851851841
      1.539637301213713	7362.5999999999985
      1.5616654662184086	20173.407407407405
      1.5754169603223946	30889.555555555551
      1.5792231278130302	33918.407407407401
      1.6028430733907113	52478.777777777766
      1.6132108575023323	60696.777777777766
      1.6270751198508848	71676.555555555533
      1.701965485861944	130959.99999999997
      1.7379936506252971	159547.77777777775
      1.8143586195726003	220187.40740740736
      1.9118105614895025	297628.14814814809
      1.9277013566015917	310261.8518518518
      1.9442838592977614	323390
  <EndBlock>
  <BeginBlock>
    <BlockName> = "Mu Metal"
    <Mu_x> = 82910
    <Mu_y> = 82910
    <H_c> = 0
    <H_cAngle> = 0
    <J_re> = 0
    <J_im> = 0
    <Sigma> = 1.8
    <d_lam> = 0
    <Phi_h> = 0
    <Phi_hx> = 0
    <Phi_hy> = 0
    <LamType> = 0
    <LamFill> = 1
    <NStrands> = 0
    <WireD> = 0
    <BHPoints> = 31
      0	0
      0.080001000000000003	0.79577500000000001
      0.099140000000000006	1.0342340000000001
      0.12679699999999999	1.344149
      0.16478400000000001	1.7469330000000001
      0.21423800000000001	2.270413
      0.27441399999999999	2.9507569999999999
      0.34069300000000002	3.8349700000000002
      0.39480599999999999	4.9841449999999998
      0.43570300000000001	6.4776769999999999
      0.46653800000000001	8.4187550000000009
      0.49254100000000001	10.941490999999999
      0.51263599999999998	14.220181
      0.53089299999999995	18.481352000000001
      0.54834099999999997	24.019411000000002
      0.56394500000000003	31.216987
      0.57866499999999998	40.571362999999998
      0.59203600000000001	52.728839999999998
      0.60396099999999997	68.529386000000002
      0.61424699999999999	89.064670000000007
      0.62285900000000005	115.75348700000001
      0.63014599999999998	150.439784
      0.63628200000000001	195.52006
      0.64158999999999999	254.10893899999999
      0.64653300000000002	330.25436300000001
      0.65073700000000001	429.217266
      0.65423600000000004	557.835058
      0.65707000000000004	724.99402199999997
      0.65927800000000003	942.24327400000004
      0.66090599999999999	1224.592701
      0.66200000000000003	1591.55
  <EndBlock>
  <BeginBlock>
    <BlockName> = "Soft magnetic ferrite (Fe-Ni-Zn-V)"
    <Mu_x> = 1
    <Mu_y> = 1
    <H_c> = 0
    <H_cAngle> = 0
    <J_re> = 0
    <J_im> = 0
    <Sigma> = 0
    <d_lam> = 0
    <Phi_h> = 0
    <Phi_hx> = 0
    <Phi_hy> = 0
    <LamType> = 0
    <LamFill> = 1
    <NStrands> = 0
    <WireD> = 0
    <BHPoints> = 27
      0	0
      0.068850756910128444	44.63519753086419
      0.079231351768504585	47.996938271604932
      0.096629805222867599	54.360481481481472
      0.10428518223687107	57.254135802469136
      0.11791981395323581	63.513925925925903
      0.12337443073651684	66.205407407407364
      0.15091206297703	83.18401234567898
      0.19174942986281673	128.63864197530862
      0.20263507284968685	150.32185185185182
      0.2390242052470492	280.2956790123456
      0.24393625127711305	307.76197530864192
      0.24555614462251754	317.50148148148139
      0.26724361274612662	486.03790123456781
      0.29056515192641547	775.60827160493818
      0.29618977849347761	869.47777777777765
      0.31289613290425267	1359.0728395061724
      0.31335557743458525	1373.2691358024688
      0.33594174880643024	2431.4518518518512
      0.36483908041448099	5699.1765432098764
      0.36848205798752964	6389.1543209876527
      0.37676605298145499	8458.0074074074037
      0.47711675995875713	61532.617283950603
      0.49488110240278821	73419.641975308608
      0.6669901800055722	197003.70370370365
      0.82853938560684104	321027.90123456786
      0.83272023087673985	324350
  <EndBlock>
  <BeginBlock>
    <BlockName> = "416 stainless steel, annealed"
    <Mu_x> = 1
    <Mu_y> = 1
    <H_c> = 0
    <H_cAngle> = 0
    <J_re> = 0
    <J_im> = 0
    <Sigma> = 1.74
    <d_lam> = 0
    <Phi_h> = 0
    <Phi_hx> = 0
    <Phi_hy> = 0
    <LamType> = 0
    <LamFill> = 1
    <NStrands> = 0
    <WireD> = 0
    <BHPoints> = 33
      0	0
      0.20778995919879328	320.92999999999995
      0.22364931371099023	331.02666666666664
      0.25084135512504779	348.56666666666666
      0.26171716173194137	355.83999999999997
      0.28346935718756683	370.84999999999997
      0.2889075243847965	374.6966666666666
      0.41218760024480688	470.25
      0.62566054494422463	660.92666666666662
      0.68005862210630241	717.75333333333322
      0.78252281053007089	837.79999999999984
      0.80020925624997319	864.15000000000009
      0.95816502937412396	1165.8333333333333
      1.0767969774200417	1509.5666666666666
      1.1100488305016618	1656.9333333333329
      1.2055703265999278	2284.1333333333332
      1.2385842209600626	2613.5
      1.3726454443074343	4969.9666666666662
      1.4275581497186043	6783.833333333333
      1.5422692199452028	12124.333333333332
      1.5580865944646081	13172.666666666666
      1.5620671785059184	13449
      1.6334236260295694	21451.666666666664
      1.6754034599026606	30215.666666666664
      1.6932013471857443	36049.666666666664
      1.7139092459532073	44836
      1.7383144421097252	58739.666666666664
      1.76404286494438	76959
      1.8507986277495354	143556.66666666666
      1.8769989795155597	164326.66666666666
      2.0216195572312698	279173.33333333331
      2.0403266942858456	294060
      2.0765429743964292	322880
  <EndBlock>
  <BeginBlock>
    <BlockName> = "Soft magnetic ferrite (Fe-Ni-Zn-V)"
    <Mu_x> = 1
    <Mu_y> = 1
    <H_c> = 0
    <H_cAngle> = 0
    <J_re> = 0
    <J_im> = 0
    <Sigma> = 0
    <d_lam> = 0
    <Phi_h> = 0
    <Phi_hx> = 0
    <Phi_hy> = 0
    <LamType> = 0
    <LamFill> = 1
    <NStrands> = 0
    <WireD> = 0
    <BHPoints> = 27
      0	0
      0.068850756910128444	44.63519753086419
      0.079231351768504585	47.996938271604932
      0.096629805222867599	54.360481481481472
      0.10428518223687107	57.254135802469136
      0.11791981395323581	63.513925925925903
      0.12337443073651684	66.205407407407364
      0.15091206297703	83.18401234567898
      0.19174942986281673	128.63864197530862
      0.20263507284968685	150.32185185185182
      0.2390242052470492	280.2956790123456
      0.24393625127711305	307.76197530864192
      0.24555614462251754	317.50148148148139
      0.26724361274612662	486.03790123456781
      0.29056515192641547	775.60827160493818
      0.29618977849347761	869.47777777777765
      0.31289613290425267	1359.0728395061724
      0.31335557743458525	1373.2691358024688
      0.33594174880643024	2431.4518518518512
      0.36483908041448099	5699.1765432098764
      0.36848205798752964	6389.1543209876527
      0.37676605298145499	8458.0074074074037
      0.47711675995875713	61532.617283950603
      0.49488110240278821	73419.641975308608
      0.6669901800055722	197003.70370370365
      0.82853938560684104	321027.90123456786
      0.83272023087673985	324350
  <EndBlock>
  <BeginBlock>
    <BlockName> = "M-15 Steel"
    <Mu_x> = 1
    <Mu_y> = 1
    <H_c> = 0
    <H_cAngle> = 0
    <J_re> = 0
    <J_im> = 0
    <Sigma> = 1.8999999999999999
    <d_lam> = 0.63500000000000001
    <Phi_h> = 0
    <Phi_hx> = 0
    <Phi_hy> = 0
    <LamType> = 0
    <LamFill> = 0.97999999999999998
    <NStrands> = 0
    <WireD> = 0
    <BHPoints> = 47
      0	0
      0.050000000000000003	15.120714
      0.10000000000000001	22.718292000000002
      0.14999999999999999	27.842732999999999
      0.20000000000000001	31.871434000000001
      0.25	35.365043999999997
      0.29999999999999999	38.600588000000002
      0.34999999999999998	41.736201999999999
      0.40000000000000002	44.873978999999999
      0.45000000000000001	48.087806999999998
      0.5	51.437235999999999
      0.55000000000000004	54.975220999999998
      0.59999999999999998	58.752992999999996
      0.65000000000000002	62.823644000000002
      0.69999999999999996	67.245284999999996
      0.75	72.084406000000001
      0.80000000000000004	77.420100000000005
      0.84999999999999998	83.350020999999998
      0.90000000000000002	89.999611999999999
      0.94999999999999996	97.537352999999996
      1	106.20140600000001
      1.05	116.34846400000001
      1.1000000000000001	128.54732899999999
      1.1499999999999999	143.76543100000001
      1.2	163.75416899999999
      1.25	191.86815799999999
      1.3	234.833507
      1.3500000000000001	306.50976900000001
      1.3999999999999999	435.255202
      1.45	674.911968
      1.5	1108.3255690000001
      1.55	1813.085468
      1.6000000000000001	2801.2174209999998
      1.6499999999999999	4053.6531169999998
      1.7	5591.10689
      1.75	7448.318413
      1.8	9708.81567
      1.8500000000000001	12486.931615
      1.8999999999999999	16041.483644
      1.95	21249.420623999998
      2	31313.495878000002
      2.0499999999999998	53589.446877000002
      2.1000000000000001	88477.484601000004
      2.1499999999999999	124329.41054
      2.2000000000000002	159968.5693
      2.25	197751.604272
      2.2999999999999998	234024.75134700001
  <EndBlock>
  <BeginBlock>
    <BlockName> = "M-22 Steel"
    <Mu_x> = 1
    <Mu_y> = 1
    <H_c> = 0
    <H_cAngle> = 0
    <J_re> = 0
    <J_im> = 0
    <Sigma> = 1.8999999999999999
    <d_lam> = 0.63500000000000001
    <Phi_h> = 0
    <Phi_hx> = 0
    <Phi_hy> = 0
    <LamType> = 0
    <LamFill> = 0.97999999999999998
    <NStrands> = 0
    <WireD> = 0
    <BHPoints> = 47
      0	0
      0.050000000000000003	15.120714
      0.10000000000000001	22.718292000000002
      0.14999999999999999	27.842732999999999
      0.20000000000000001	31.871434000000001
      0.25	35.365043999999997
      0.29999999999999999	38.600588000000002
      0.34999999999999998	41.736201999999999
      0.40000000000000002	44.873978999999999
      0.45000000000000001	48.087806999999998
      0.5	51.437235999999999
      0.55000000000000004	54.975220999999998
      0.59999999999999998	58.752992999999996
      0.65000000000000002	62.823644000000002
      0.69999999999999996	67.245284999999996
      0.75	72.084406000000001
      0.80000000000000004	77.420100000000005
      0.84999999999999998	83.350020999999998
      0.90000000000000002	89.999611999999999
      0.94999999999999996	97.537352999999996
      1	106.20140600000001
      1.05	116.34846400000001
      1.1000000000000001	128.54732899999999
      1.1499999999999999	143.76543100000001
      1.2	163.75416899999999
      1.25	191.86815799999999
      1.3	234.833507
      1.3500000000000001	306.50976900000001
      1.3999999999999999	435.255202
      1.45	674.911968
      1.5	1108.3255690000001
      1.55	1813.085468
      1.6000000000000001	2801.2174209999998
      1.6499999999999999	4053.6531169999998
      1.7	5591.10689
      1.75	7448.318413
      1.8	9708.81567
      1.8500000000000001	12486.931615
      1.8999999999999999	16041.483644
      1.95	21249.420623999998
      2	31313.495878000002
      2.0499999999999998	53589.446877000002
      2.1000000000000001	88477.484601000004
      2.1499999999999999	124329.41054
      2.2000000000000002	159968.5693
      2.25	197751.604272
      2.2999999999999998	234024.75134700001
  <EndBlock>
  <BeginBlock>
    <BlockName> = "M-45 Steel"
    <Mu_x> = 4689
    <Mu_y> = 4689
    <H_c> = 0
    <H_cAngle> = 0
    <J_re> = 0
    <J_im> = 0
    <Sigma> = 2.8999999999999999
    <d_lam> = 0.63500000000000001
    <Phi_h> = 0
    <Phi_hx> = 0
    <Phi_hy> = 0
    <LamType> = 0
    <LamFill> = 0.97999999999999998
    <NStrands> = 0
    <WireD> = 0
    <BHPoints> = 47
      0	0
      0.050000000000000003	19.965330000000002
      0.10000000000000001	29.906288
      0.14999999999999999	36.398771000000004
      0.20000000000000001	41.371668999999997
      0.25	45.590262000000003
      0.29999999999999999	49.424858999999998
      0.34999999999999998	53.082279999999997
      0.40000000000000002	56.692664000000001
      0.45000000000000001	60.347374000000002
      0.5	64.117637000000002
      0.55000000000000004	68.064755000000005
      0.59999999999999998	72.246370999999996
      0.65000000000000002	76.720885999999993
      0.69999999999999996	81.551123000000004
      0.75	86.807958999999997
      0.80000000000000004	92.574503000000007
      0.84999999999999998	98.951520000000002
      0.90000000000000002	106.06504700000001
      0.94999999999999996	114.077777
      1	123.20691100000001
      1.05	133.75338500000001
      1.1000000000000001	146.15173799999999
      1.1499999999999999	161.05866800000001
      1.2	179.51663400000001
      1.25	203.267945
      1.3	235.37974800000001
      1.3500000000000001	281.52494799999999
      1.3999999999999999	352.64841200000001
      1.45	470.42617899999999
      1.5	677.45154100000002
      1.55	1051.0680359999999
      1.6000000000000001	1703.275165
      1.6499999999999999	2726.5179589999998
      1.7	4137.9810520000001
      1.75	5832.6197039999997
      1.8	7939.5529399999996
      1.8500000000000001	10565.294335000001
      1.8999999999999999	13843.912965
      1.95	17970.359698
      2	23423.776431999999
      2.0499999999999998	32234.325959999998
      2.1000000000000001	51366.778966999998
      2.1499999999999999	84577.843500999996
      2.2000000000000002	121162.49332199999
      2.25	160127.812767
      2.2999999999999998	202470.28224500001
  <EndBlock>
[CircuitProps]  = 1
  <BeginCircuit>
    <CircuitName> = "Coil Circuit"
    <TotalAmps_re> = 3
    <TotalAmps_im> = 0
    <CircuitType> = 1
  <EndCircuit>
[NumPoints] = 30
-30	-35	0	0
-30	35	0	0
30	-35	0	0
30	-10	0	0
15	-10	0	0
-15	-20	0	0
-15	20	0	0
15	20	0	0
15	10	0	0
15	-20	0	0
30	35	0	0
30	10	0	0
10.479184719828693	1.4142135623730914	0	0
11.893398282201787	8.8817841970012523e-016	0	0
23.914213562373096	-12.020815280171306	0	0
22.5	-10.606601717798211	0	0
21.085786437626904	12.020815280171306	0	0
22.5	10.606601717798213	0	0
34.520815280171306	-1.414213562373094	0	0
33.106601717798213	-8.8817841970012523e-016	0	0
-30	-15	0	0
-30	15	0	0
-40	15	0	0
-40	-15	0	0
-5	-15	0	0
-15	-15	0	0
-15	15	0	0
-5	15	0	0
-300	0	0	0
300	0	0	0
[NumSegments] = 24
0	2	-1	0	0	0
1	21	-1	0	0	0
1	10	-1	0	0	0
7	6	-1	0	0	0
7	8	-1	0	0	0
10	11	-1	0	0	0
9	4	-1	0	0	0
3	2	-1	0	0	0
5	9	-1	0	0	0
12	13	-1	0	0	0
16	17	-1	0	0	0
15	14	-1	0	0	0
19	18	-1	0	0	0
20	0	-1	0	0	0
21	20	-1	0	0	0
6	26	-1	0	0	0
22	21	-1	0	0	0
22	23	-1	0	0	0
23	20	-1	0	0	0
25	5	-1	0	0	0
26	25	-1	0	0	0
26	27	-1	0	0	0
24	27	-1	0	0	0
24	25	-1	0	0	0
[NumArcSegments] = 8
13	15	83	1	0	0	0	1
19	17	83	1	0	0	0	1
28	29	180	1	1	0	0	1
29	28	180	1	1	0	0	1
16	12	74	1	0	0	0	1
11	8	74	1	0	0	0	1
4	3	74	1	0	0	0	1
14	18	74	1	0	0	0	1
[NumHoles] = 0
[NumBlockLabels] = 5
-0.89999999999999858	27.299999999999997	9	-1	0	0	0	1	0
-35.899999999999999	0	2	-1	1	0	0	250	0
-152	147	1	-1	0	0	0	1	0
24.300000000000001	0.40000000000000002	9	-1	0	0	0	1	0
-8.6999999999999993	1.3999999999999999	2	-1	1	0	0	-250	0
